<?xml version="1.0" encoding="UTF-8"?>

<!-- generated on 2024-05-12 16:48:40 by Eclipse SUMO netedit Version 1.19.0
<configuration xmlns:xsi="http://www.w3.org/2001/XMLSchema-instance" xsi:noNamespaceSchemaLocation="http://sumo.dlr.de/xsd/neteditConfiguration.xsd">

    <input>
        <sumocfg-file value="C:\Users\nirfo\Sumo Stuff\fixed_time_base.sumocfg"/>
        <additional-files value=""/>
        <route-files value="C:\Users\nirfo\Sumo Stuff\demand_all.rou.xml"/>
        <sumo-net-file value="C:\Users\nirfo\Sumo Stuff\simple_network.net.xml"/>
    </input>

    <output>
        <output-file value="C:\Users\nirfo\Sumo Stuff\simple_network.net.xml"/>
    </output>

    <processing>
        <geometry.min-radius.fix.railways value="false"/>
        <geometry.max-grade.fix value="false"/>
        <offset.disable-normalization value="true"/>
        <lefthand value="0"/>
    </processing>

    <junctions>
        <no-turnarounds value="true"/>
        <junctions.corner-detail value="5"/>
        <junctions.limit-turn-speed value="5.50"/>
        <rectangular-lane-cut value="0"/>
    </junctions>

    <pedestrian>
        <walkingareas value="0"/>
    </pedestrian>

</configuration>
-->

<net version="1.16" junctionCornerDetail="5" limitTurnSpeed="5.50" xmlns:xsi="http://www.w3.org/2001/XMLSchema-instance" xsi:noNamespaceSchemaLocation="http://sumo.dlr.de/xsd/net_file.xsd">
<!--configuration of the network, the edges-->
    <location netOffset="0.00,0.00" convBoundary="-200.00,0.00,0.00,200.00" origBoundary="-10000000000.00,-10000000000.00,10000000000.00,10000000000.00" projParameter="!"/>

    <edge id=":J10_0" function="internal">
        <lane id=":J10_0_0" index="0" speed="6.51" length="9.03" shape="-104.80,110.40 -105.15,107.95 -106.20,106.20 -107.95,105.15 -110.40,104.80"/>
    </edge>
    <edge id=":J10_1" function="internal">
        <lane id=":J10_1_0" index="0" speed="13.89" length="20.80" shape="-104.80,110.40 -104.80,89.60"/>
    </edge>
    <edge id=":J10_2" function="internal">
        <lane id=":J10_2_0" index="0" speed="9.26" length="19.35" shape="-101.60,110.40 -100.85,105.15 -98.60,101.40 -94.85,99.15 -89.60,98.40"/>
    </edge>
    <edge id=":J10_3" function="internal">
        <lane id=":J10_3_0" index="0" speed="6.51" length="9.03" shape="-89.60,104.80 -92.05,105.15 -93.80,106.20 -94.85,107.95 -95.20,110.40"/>
    </edge>
    <edge id=":J10_4" function="internal">
        <lane id=":J10_4_0" index="0" speed="13.89" length="20.80" shape="-89.60,104.80 -110.40,104.80"/>
    </edge>
    <edge id=":J10_5" function="internal">
        <lane id=":J10_5_0" index="0" speed="9.26" length="19.35" shape="-89.60,101.60 -94.85,100.85 -98.60,98.60 -100.85,94.85 -101.60,89.60"/>
    </edge>
    <edge id=":J10_6" function="internal">
        <lane id=":J10_6_0" index="0" speed="6.51" length="9.03" shape="-95.20,89.60 -94.85,92.05 -93.80,93.80 -92.05,94.85 -89.60,95.20"/>
    </edge>
    <edge id=":J10_7" function="internal">
        <lane id=":J10_7_0" index="0" speed="13.89" length="20.80" shape="-95.20,89.60 -95.20,110.40"/>
    </edge>
    <edge id=":J10_8" function="internal">
        <lane id=":J10_8_0" index="0" speed="9.26" length="19.35" shape="-98.40,89.60 -99.15,94.85 -101.40,98.60 -105.15,100.85 -110.40,101.60"/>
    </edge>
    <edge id=":J10_9" function="internal">
        <lane id=":J10_9_0" index="0" speed="6.51" length="9.03" shape="-110.40,95.20 -107.95,94.85 -106.20,93.80 -105.15,92.05 -104.80,89.60"/>
    </edge>
    <edge id=":J10_10" function="internal">
        <lane id=":J10_10_0" index="0" speed="13.89" length="20.80" shape="-110.40,95.20 -89.60,95.20"/>
    </edge>
    <edge id=":J10_11" function="internal">
        <lane id=":J10_11_0" index="0" speed="9.26" length="19.35" shape="-110.40,98.40 -105.15,99.15 -101.40,101.40 -99.15,105.15 -98.40,110.40"/>
    </edge>

    <edge id="EI" from="J11" to="J10" priority="-1">
        <lane id="EI_0" index="0" speed="13.89" length="89.60" shape="0.00,104.80 -89.60,104.80"/>
        <lane id="EI_1" index="1" speed="13.89" length="89.60" shape="0.00,101.60 -89.60,101.60"/>
    </edge>
    <edge id="EO" from="J10" to="J11" priority="-1">
        <lane id="EO_0" index="0" speed="13.89" length="89.60" shape="-89.60,95.20 0.00,95.20"/>
        <lane id="EO_1" index="1" speed="13.89" length="89.60" shape="-89.60,98.40 0.00,98.40"/>
    </edge>
    <edge id="NI" from="J12" to="J10" priority="-1">
        <lane id="NI_0" index="0" speed="13.89" length="89.60" shape="-104.80,200.00 -104.80,110.40"/>
        <lane id="NI_1" index="1" speed="13.89" length="89.60" shape="-101.60,200.00 -101.60,110.40"/>
    </edge>
    <edge id="NO" from="J10" to="J12" priority="-1">
        <lane id="NO_0" index="0" speed="13.89" length="89.60" shape="-95.20,110.40 -95.20,200.00"/>
        <lane id="NO_1" index="1" speed="13.89" length="89.60" shape="-98.40,110.40 -98.40,200.00"/>
    </edge>
    <edge id="SI" from="J13" to="J10" priority="-1">
        <lane id="SI_0" index="0" speed="13.89" length="89.60" shape="-95.20,0.00 -95.20,89.60"/>
        <lane id="SI_1" index="1" speed="13.89" length="89.60" shape="-98.40,0.00 -98.40,89.60"/>
    </edge>
    <edge id="SO" from="J10" to="J13" priority="-1">
        <lane id="SO_0" index="0" speed="13.89" length="89.60" shape="-104.80,89.60 -104.80,0.00"/>
        <lane id="SO_1" index="1" speed="13.89" length="89.60" shape="-101.60,89.60 -101.60,0.00"/>
    </edge>
    <edge id="WI" from="J9" to="J10" priority="-1">
        <lane id="WI_0" index="0" speed="13.89" length="89.60" shape="-200.00,95.20 -110.40,95.20"/>
        <lane id="WI_1" index="1" speed="13.89" length="89.60" shape="-200.00,98.40 -110.40,98.40"/>
    </edge>
    <edge id="WO" from="J10" to="J9" priority="-1">
        <lane id="WO_0" index="0" speed="13.89" length="89.60" shape="-110.40,104.80 -200.00,104.80"/>
        <lane id="WO_1" index="1" speed="13.89" length="89.60" shape="-110.40,101.60 -200.00,101.60"/>
    </edge>
<!--configuration of the trafficlight-->
    <tlLogic id="J10" type="static" programID="0" offset="0">
        <phase duration="10" state="rrrggrrrrggr" name="A1G"/>
        <phase duration="3"  state="rrryyrrrryyr" name="A1Y"/>
        <phase duration="3"  state="yyrrrryyrrrr" name="A2Y"/>
        <phase duration="10" state="ggrrrrggrrrr" name="A2G"/>
        <phase duration="3"  state="yyrrrryyrrrr" name="A2Y"/>
        <phase duration="3"  state="rryrrrrryrrr" name="A3Y"/>
        <phase duration="10" state="rrgrrrrrgrrr" name="A3G"/>
        <phase duration="3"  state="rryrrrrryrrr" name="A3Y"/>
        <phase duration="3"  state="rrrrryrrrrry" name="A4Y"/>
        <phase duration="10" state="rrrrrgrrrrrg" name="A4G"/>
        <phase duration="3"  state="rrrrryrrrrry" name="A4Y"/>
        <phase duration="3"  state="rrryyrrrryyr" name="A1Y"/>
    </tlLogic>

    <junction id="J10" type="traffic_light" x="-100.00" y="100.00" incLanes="NI_0 NI_1 EI_0 EI_1 SI_0 SI_1 WI_0 WI_1" intLanes=":J10_0_0 :J10_1_0 :J10_2_0 :J10_3_0 :J10_4_0 :J10_5_0 :J10_6_0 :J10_7_0 :J10_8_0 :J10_9_0 :J10_10_0 :J10_11_0" shape="-106.40,110.40 -93.60,110.40 -93.16,108.18 -92.60,107.40 -91.82,106.84 -90.82,106.51 -89.60,106.40 -89.60,93.60 -91.82,93.16 -92.60,92.60 -93.16,91.82 -93.49,90.82 -93.60,89.60 -106.40,89.60 -106.84,91.82 -107.40,92.60 -108.18,93.16 -109.18,93.49 -110.40,93.60 -110.40,106.40 -108.18,106.84 -107.40,107.40 -106.84,108.18 -106.51,109.18">
        <request index="0"  response="000000000000" foes="000000010000" cont="0"/>
        <request index="1"  response="000000000000" foes="111100010000" cont="0"/>
        <request index="2"  response="000010000000" foes="100010110000" cont="0"/>
        <request index="3"  response="000010000000" foes="000010000000" cont="0"/>
        <request index="4"  response="000010000111" foes="100010000111" cont="0"/>
        <request index="5"  response="010110000100" foes="010110000100" cont="0"/>
        <request index="6"  response="000000000000" foes="010000000000" cont="0"/>
        <request index="7"  response="000000000000" foes="010000111100" cont="0"/>
        <request index="8"  response="000000000010" foes="110000100010" cont="0"/>
        <request index="9"  response="000000000010" foes="000000000010" cont="0"/>
        <request index="10" response="000111000010" foes="000111100010" cont="0"/>
        <request index="11" response="000100010110" foes="000100010110" cont="0"/>
    </junction>
    <junction id="J11" type="dead_end" x="0.00" y="100.00" incLanes="EO_0 EO_1" intLanes="" shape="0.00,100.00 0.00,93.60 0.00,100.00"/>
    <junction id="J12" type="dead_end" x="-100.00" y="200.00" incLanes="NO_0 NO_1" intLanes="" shape="-100.00,200.00 -93.60,200.00 -100.00,200.00"/>
    <junction id="J13" type="dead_end" x="-100.00" y="0.00" incLanes="SO_0 SO_1" intLanes="" shape="-100.00,0.00 -106.40,0.00 -100.00,0.00"/>
    <junction id="J9" type="dead_end" x="-200.00" y="100.00" incLanes="WO_0 WO_1" intLanes="" shape="-200.00,100.00 -200.00,106.40 -200.00,100.00"/>
<!--configuration of the routes-->
    <connection from="EI" to="NO" fromLane="0" toLane="0" via=":J10_3_0" tl="J10" linkIndex="3" dir="r" state="o"/>
    <connection from="EI" to="WO" fromLane="0" toLane="0" via=":J10_4_0" tl="J10" linkIndex="4" dir="s" state="o"/>
    <connection from="EI" to="SO" fromLane="1" toLane="1" via=":J10_5_0" tl="J10" linkIndex="5" dir="l" state="o"/>
    <connection from="NI" to="WO" fromLane="0" toLane="0" via=":J10_0_0" tl="J10" linkIndex="0" dir="r" state="O"/>
    <connection from="NI" to="SO" fromLane="0" toLane="0" via=":J10_1_0" tl="J10" linkIndex="1" dir="s" state="O"/>
    <connection from="NI" to="EO" fromLane="1" toLane="1" via=":J10_2_0" tl="J10" linkIndex="2" dir="l" state="o"/>
    <connection from="SI" to="EO" fromLane="0" toLane="0" via=":J10_6_0" tl="J10" linkIndex="6" dir="r" state="O"/>
    <connection from="SI" to="NO" fromLane="0" toLane="0" via=":J10_7_0" tl="J10" linkIndex="7" dir="s" state="O"/>
    <connection from="SI" to="WO" fromLane="1" toLane="1" via=":J10_8_0" tl="J10" linkIndex="8" dir="l" state="o"/>
    <connection from="WI" to="SO" fromLane="0" toLane="0" via=":J10_9_0" tl="J10" linkIndex="9" dir="r" state="o"/>
    <connection from="WI" to="EO" fromLane="0" toLane="0" via=":J10_10_0" tl="J10" linkIndex="10" dir="s" state="o"/>
    <connection from="WI" to="NO" fromLane="1" toLane="1" via=":J10_11_0" tl="J10" linkIndex="11" dir="l" state="o"/>

    <connection from=":J10_0" to="WO" fromLane="0" toLane="0" dir="r" state="M"/>
    <connection from=":J10_1" to="SO" fromLane="0" toLane="0" dir="s" state="M"/>
    <connection from=":J10_2" to="EO" fromLane="0" toLane="1" dir="l" state="M"/>
    <connection from=":J10_3" to="NO" fromLane="0" toLane="0" dir="r" state="M"/>
    <connection from=":J10_4" to="WO" fromLane="0" toLane="0" dir="s" state="M"/>
    <connection from=":J10_5" to="SO" fromLane="0" toLane="1" dir="l" state="M"/>
    <connection from=":J10_6" to="EO" fromLane="0" toLane="0" dir="r" state="M"/>
    <connection from=":J10_7" to="NO" fromLane="0" toLane="0" dir="s" state="M"/>
    <connection from=":J10_8" to="WO" fromLane="0" toLane="1" dir="l" state="M"/>
    <connection from=":J10_9" to="SO" fromLane="0" toLane="0" dir="r" state="M"/>
    <connection from=":J10_10" to="EO" fromLane="0" toLane="0" dir="s" state="M"/>
    <connection from=":J10_11" to="NO" fromLane="0" toLane="1" dir="l" state="M"/>

</net>
